# File generated by Flopy version 3.9.5 on 06/05/2026 at 10:37:48.
BEGIN options
  SAVE_FLOWS
END options

BEGIN packages
  DIS6  darcy_1d.dis  dis
  NPF6  darcy_1d.npf  npf
  IC6  darcy_1d.ic  ic
  CHD6  darcy_1d.chd  chd_0
  OC6  darcy_1d.oc  oc
END packages

