# File generated by Flopy version 3.9.5 on 06/05/2026 at 10:37:48.
BEGIN options
  SAVE_FLOWS
END options

BEGIN dimensions
  MAXBOUND  2
END dimensions

BEGIN period  1
  1 1 1 1.00000000E+01
  1 1 10 5.00000000E+00
END period  1

