# File generated by Flopy version 3.9.5 on 06/05/2026 at 10:37:48.
BEGIN options
END options

BEGIN griddata
  icelltype
    CONSTANT  0
  k
    CONSTANT      10.00000000
END griddata

