# File generated by Flopy version 3.9.5 on 06/05/2026 at 10:37:48.
BEGIN options
END options

BEGIN dimensions
  NLAY  1
  NROW  1
  NCOL  10
END dimensions

BEGIN griddata
  delr
    CONSTANT      10.00000000
  delc
    CONSTANT      10.00000000
  top
    CONSTANT      15.00000000
  botm
    CONSTANT       0.00000000
END griddata

