# File generated by Flopy version 3.9.5 on 06/05/2026 at 10:37:48.
BEGIN options
  COMPLEXITY  simple
END options

