# File generated by Flopy version 3.9.5 on 06/05/2026 at 10:37:48.
BEGIN options
  BUDGET  FILEOUT  darcy_1d.cbc
  HEAD  FILEOUT  darcy_1d.hds
END options

BEGIN period  1
  SAVE  HEAD  ALL
  SAVE  BUDGET  ALL
END period  1

