# File generated by Flopy version 3.9.5 on 06/05/2026 at 10:37:48.
BEGIN options
END options

BEGIN timing
  TDIS6  darcy_1d.tdis
END timing

BEGIN models
  gwf6  darcy_1d.nam  darcy_1d
END models

BEGIN exchanges
END exchanges

BEGIN solutiongroup  1
  ims6  darcy_1d.ims  darcy_1d
END solutiongroup  1

